Circuit: * C:\Users\hoangp\Documents\GitHub\EE542\spicesim\powertrain.asc

WARNING: Node LSDRIVE is floating.

WARNING: Less than two connections to node TRI_REF.  This node is used by V3.
Direct Newton iteration for .op point succeeded.

Date: Sat Nov 08 22:58:57 2014
Total elapsed time: 0.931 seconds.

tnom = 27
temp = 27
method = modified trap
totiter = 95132
traniter = 95100
tranpoints = 47551
accept = 36660
rejected = 10891
matrix size = 20
fillins = 1
solver = Alternate
Matrix Compiler1: 1.27 KB object code size  0.5/0.4/[0.2]
Matrix Compiler2: off  [0.3]/0.6/0.4


